data_

_audit_creation_date      'June 11, 2021'
_audit_creation_method    'Draft CIF file generated with Atomsk'
 
_chemical_name_common             ?
_chemical_melting_point           ?
_chemical_formula_iupac           'Na2 Zn2 H48 C106 N10 O16'
_chemical_formula_moiety          'Na2 Zn2 H48 C106 N10 O16'
_chemical_formula_sum             'Na2 Zn2 H48 C106 N10 O16'
_chemical_formula_weight          1894.344
_chemical_compound_source         ?
_chemical_absolute_configuration  ?
_exptl_crystal_description        'EDIT-ENTRY'
_diffrn_measurement_device_type   'EDIT-ENTRY'
 
_space_group_IT_number            1
_space_group_crystal_system       triclinic
_symmetry_space_group_name_Hall   'P 1'
_symmetry_space_group_name_H-M    'P 1'
 
loop_
_space_group_symop_operation_xyz
'+x,+y,+z'
 
_cell_length_a                    16.3150
_cell_length_b                    17.4050
_cell_length_c                    18.4100
_cell_angle_alpha                 89.5920
_cell_angle_beta                  84.3300
_cell_angle_gamma                 82.5210
_cell_volume                      5088.8438
 
loop_
 _atom_site_label
 _atom_site_type_symbol
 _atom_site_fract_x
 _atom_site_fract_y
 _atom_site_fract_z
Na1  Na  0.088780  0.050660  0.000200
Na2  Na  0.911220  0.949340  0.999800
Zn1  Zn  0.525300  0.498900  0.190100
Zn2  Zn  0.474700  0.501100  0.809900
H1  H  0.605300  0.204900  0.156700
H2  H  0.455000  0.222200  0.160100
H3  H  0.217800  0.465500  0.175900
H4  H  0.218000  0.604800  0.174500
H5  H  0.449500  0.794000  0.178800
H6  H  0.598500  0.777800  0.178200
H7  H  0.836200  0.533800  0.162500
H8  H  0.837100  0.392500  0.157500
H9  H  0.735300  0.252300  0.049500
H10  H  0.837100  0.148200  0.035800
H11  H  0.885200  0.168900  0.242000
H12  H  0.780700  0.274300  0.259500
H13  H  0.304900  0.342300  0.058900
H14  H  0.208400  0.258000  0.045000
H15  H  0.206100  0.203500  0.257600
H16  H  0.302600  0.287800  0.271500
H17  H  0.361100  0.757600  0.069600
H18  H  0.265500  0.866400  0.056300
H19  H  0.141300  0.820500  0.246200
H20  H  0.240400  0.715600  0.263100
H21  H  0.723400  0.714300  0.067200
H22  H  0.823500  0.795100  0.058200
H23  H  0.881600  0.737400  0.258100
H24  H  0.779700  0.654200  0.268200
H25  H  0.394700  0.795100  0.843300
H26  H  0.545000  0.777800  0.839900
H27  H  0.782200  0.534500  0.824100
H28  H  0.782000  0.395200  0.825500
H29  H  0.550500  0.206000  0.821200
H30  H  0.401500  0.222200  0.821800
H31  H  0.163800  0.466200  0.837500
H32  H  0.162900  0.607500  0.842500
H33  H  0.264700  0.747700  0.950500
H34  H  0.162900  0.851800  0.964200
H35  H  0.114800  0.831100  0.758000
H36  H  0.219300  0.725700  0.740500
H37  H  0.695100  0.657700  0.941100
H38  H  0.791600  0.742000  0.955000
H39  H  0.793900  0.796500  0.742400
H40  H  0.697400  0.712200  0.728500
H41  H  0.638900  0.242400  0.930400
H42  H  0.734500  0.133600  0.943700
H43  H  0.858700  0.179500  0.753800
H44  H  0.759600  0.284400  0.736900
H45  H  0.276600  0.285700  0.932800
H46  H  0.176500  0.204900  0.941800
H47  H  0.118400  0.262600  0.741900
H48  H  0.220300  0.345800  0.731800
C1  C  0.704300  0.415500  0.168800
C2  C  0.679100  0.342100  0.165800
C3  C  0.595800  0.326700  0.166800
C4  C  0.570600  0.251800  0.161100
C5  C  0.488200  0.261400  0.163200
C6  C  0.459600  0.342500  0.171200
C7  C  0.377500  0.377200  0.174300
C8  C  0.349600  0.456400  0.177800
C9  C  0.264100  0.491500  0.176400
C10  C  0.264300  0.567800  0.176000
C11  C  0.348400  0.583400  0.178300
C12  C  0.375400  0.656200  0.176000
C13  C  0.458000  0.671900  0.176000
C14  C  0.484000  0.747000  0.177700
C15  C  0.565300  0.738200  0.177500
C16  C  0.594200  0.655400  0.175700
C17  C  0.676100  0.622000  0.173600
C18  C  0.704000  0.541400  0.172600
C19  C  0.790000  0.507400  0.165100
C20  C  0.790500  0.429700  0.162400
C21  C  0.745300  0.273800  0.156100
C22  C  0.764300  0.235600  0.088900
C23  C  0.825600  0.173400  0.080800
C24  C  0.870300  0.147600  0.137400
C25  C  0.854200  0.185600  0.203800
C26  C  0.791500  0.249000  0.214500
C27  C  0.937000  0.079200  0.127200
C28  C  0.313300  0.323400  0.166600
C29  C  0.285100  0.314500  0.098700
C30  C  0.227300  0.264000  0.090400
C31  C  0.197700  0.222400  0.149900
C32  C  0.225900  0.231300  0.217700
C33  C  0.283700  0.281800  0.226100
C34  C  0.133800  0.169000  0.137800
C35  C  0.311500  0.725200  0.167300
C36  C  0.317800  0.770500  0.105900
C37  C  0.259900  0.835800  0.097600
C38  C  0.194500  0.854900  0.150300
C39  C  0.186400  0.808800  0.211300
C40  C  0.245200  0.745100  0.221000
C41  C  0.134400  0.925800  0.140000
C42  C  0.741400  0.675000  0.168400
C43  C  0.755200  0.718300  0.106000
C44  C  0.814900  0.766800  0.100700
C45  C  0.863300  0.774700  0.158000
C46  C  0.849800  0.732800  0.219400
C47  C  0.788400  0.682400  0.225700
C48  C  0.926300  0.829500  0.149300
C49  C  0.453000  0.464700  0.346700
C50  C  0.447000  0.464800  0.422500
C51  C  0.503400  0.499400  0.458940
C52  C  0.565900  0.533800  0.419500
C53  C  0.572000  0.533700  0.343700
C54  C  0.295700  0.584500  0.831200
C55  C  0.320900  0.657900  0.834200
C56  C  0.404200  0.673300  0.833200
C57  C  0.429400  0.748200  0.838900
C58  C  0.511800  0.738600  0.836800
C59  C  0.540400  0.657500  0.828800
C60  C  0.622500  0.622800  0.825700
C61  C  0.650400  0.543600  0.822200
C62  C  0.735900  0.508500  0.823600
C63  C  0.735700  0.432200  0.824000
C64  C  0.651600  0.416600  0.821700
C65  C  0.624600  0.343800  0.824000
C66  C  0.542000  0.328100  0.824000
C67  C  0.516000  0.253000  0.822300
C68  C  0.434700  0.261800  0.822500
C69  C  0.405800  0.344600  0.824300
C70  C  0.323900  0.378000  0.826400
C71  C  0.296000  0.458600  0.827400
C72  C  0.210000  0.492600  0.834900
C73  C  0.209500  0.570300  0.837600
C74  C  0.254700  0.726200  0.843900
C75  C  0.235700  0.764400  0.911100
C76  C  0.174400  0.826600  0.919200
C77  C  0.129700  0.852400  0.862600
C78  C  0.145800  0.814400  0.796200
C79  C  0.208500  0.751000  0.785500
C80  C  0.063000  0.920800  0.872800
C81  C  0.686700  0.676600  0.833400
C82  C  0.714900  0.685500  0.901300
C83  C  0.772700  0.736000  0.909600
C84  C  0.802300  0.777600  0.850100
C85  C  0.774100  0.768700  0.782300
C86  C  0.716300  0.718200  0.773900
C87  C  0.866200  0.831000  0.862200
C88  C  0.688500  0.274800  0.832700
C89  C  0.682200  0.229500  0.894100
C90  C  0.740100  0.164200  0.902400
C91  C  0.805500  0.145100  0.849700
C92  C  0.813600  0.191200  0.788700
C93  C  0.754800  0.254900  0.779000
C94  C  0.865600  0.074200  0.860000
C95  C  0.258600  0.325000  0.831600
C96  C  0.244800  0.281700  0.894000
C97  C  0.185100  0.233200  0.899300
C98  C  0.136700  0.225300  0.842000
C99  C  0.150200  0.267200  0.780600
C100  C  0.211600  0.317600  0.774300
C101  C  0.073700  0.170500  0.850700
C102  C  0.547000  0.535300  0.653300
C103  C  0.553000  0.535200  0.577500
C104  C  0.496600  0.500600  0.541060
C105  C  0.434100  0.466200  0.580500
C106  C  0.428000  0.466300  0.656300
N1  N  0.528100  0.381300  0.173700
N2  N  0.399500  0.513900  0.179900
N3  N  0.525700  0.616400  0.177100
N4  N  0.654300  0.484400  0.174700
N5  N  0.515500  0.499200  0.307250
N6  N  0.471900  0.618700  0.826300
N7  N  0.600500  0.486100  0.820100
N8  N  0.474300  0.383600  0.822900
N9  N  0.345700  0.515600  0.825300
N10  N  0.484500  0.500800  0.692750
O1  O  0.954700  0.048500  0.067100
O2  O  0.973400  0.058400  0.183300
O3  O  0.117100  0.151900  0.077800
O4  O  0.088900  0.152100  0.202200
O5  O  0.147400  0.970600  0.090000
O6  O  0.070800  0.937100  0.188400
O7  O  0.940900  0.866100  0.095700
O8  O  0.967200  0.832500  0.208800
O9  O  0.045300  0.951500  0.932900
O10  O  0.026600  0.941600  0.816700
O11  O  0.882900  0.848100  0.922200
O12  O  0.911100  0.847900  0.797800
O13  O  0.852600  0.029400  0.910000
O14  O  0.929200  0.062900  0.811600
O15  O  0.059100  0.133900  0.904300
O16  O  0.032800  0.167500  0.791200
