data_LOJFUL_cleanP-1
# Symmetrized structure with precision = 1e-10
_cell_length_a                  16.315
_cell_length_b                  17.405
_cell_length_c                  18.41
_cell_angle_alpha               89.592
_cell_angle_beta                84.33
_cell_angle_gamma               82.521
_symmetry_space_group_name_H-M  'P-1'
_symmetry_Int_Tables_number     2

loop_
_atom_site_label
_atom_site_type_symbol
_atom_site_occupancy
_atom_site_fract_x
_atom_site_fract_y
_atom_site_fract_z
Na1 Na 1.0 0.0887800 0.0506600 0.0002000
Zn1 Zn 1.0 0.5253000 0.4989000 0.1901000
H1 H 1.0 0.6053000 0.2049000 0.1567000
H2 H 1.0 0.4550000 0.2222000 0.1601000
H3 H 1.0 0.2178000 0.4655000 0.1759000
H4 H 1.0 0.2180000 0.6048000 0.1745000
H5 H 1.0 0.4495000 0.7940000 0.1788000
H6 H 1.0 0.5985000 0.7778000 0.1782000
H7 H 1.0 0.8362000 0.5338000 0.1625000
H8 H 1.0 0.8371000 0.3925000 0.1575000
H9 H 1.0 0.7353000 0.2523000 0.0495000
H10 H 1.0 0.8371000 0.1482000 0.0358000
H11 H 1.0 0.8852000 0.1689000 0.2420000
H12 H 1.0 0.7807000 0.2743000 0.2595000
H13 H 1.0 0.3049000 0.3423000 0.0589000
H14 H 1.0 0.2084000 0.2580000 0.0450000
H15 H 1.0 0.2061000 0.2035000 0.2576000
H16 H 1.0 0.3026000 0.2878000 0.2715000
H17 H 1.0 0.3611000 0.7576000 0.0696000
H18 H 1.0 0.2655000 0.8664000 0.0563000
H19 H 1.0 0.1413000 0.8205000 0.2462000
H20 H 1.0 0.2404000 0.7156000 0.2631000
H21 H 1.0 0.7234000 0.7143000 0.0672000
H22 H 1.0 0.8235000 0.7951000 0.0582000
H23 H 1.0 0.8816000 0.7374000 0.2581000
H24 H 1.0 0.7797000 0.6542000 0.2682000
C1 C 1.0 0.7043000 0.4155000 0.1688000
C2 C 1.0 0.6791000 0.3421000 0.1658000
C3 C 1.0 0.5958000 0.3267000 0.1668000
C4 C 1.0 0.5706000 0.2518000 0.1611000
C5 C 1.0 0.4882000 0.2614000 0.1632000
C6 C 1.0 0.4596000 0.3425000 0.1712000
C7 C 1.0 0.3775000 0.3772000 0.1743000
C8 C 1.0 0.3496000 0.4564000 0.1778000
C9 C 1.0 0.2641000 0.4915000 0.1764000
C10 C 1.0 0.2643000 0.5678000 0.1760000
C11 C 1.0 0.3484000 0.5834000 0.1783000
C12 C 1.0 0.3754000 0.6562000 0.1760000
C13 C 1.0 0.4580000 0.6719000 0.1760000
C14 C 1.0 0.4840000 0.7470000 0.1777000
C15 C 1.0 0.5653000 0.7382000 0.1775000
C16 C 1.0 0.5942000 0.6554000 0.1757000
C17 C 1.0 0.6761000 0.6220000 0.1736000
C18 C 1.0 0.7040000 0.5414000 0.1726000
C19 C 1.0 0.7900000 0.5074000 0.1651000
C20 C 1.0 0.7905000 0.4297000 0.1624000
C21 C 1.0 0.7453000 0.2738000 0.1561000
C22 C 1.0 0.7643000 0.2356000 0.0889000
C23 C 1.0 0.8256000 0.1734000 0.0808000
C24 C 1.0 0.8703000 0.1476000 0.1374000
C25 C 1.0 0.8542000 0.1856000 0.2038000
C26 C 1.0 0.7915000 0.2490000 0.2145000
C27 C 1.0 0.9370000 0.0792000 0.1272000
C28 C 1.0 0.3133000 0.3234000 0.1666000
C29 C 1.0 0.2851000 0.3145000 0.0987000
C30 C 1.0 0.2273000 0.2640000 0.0904000
C31 C 1.0 0.1977000 0.2224000 0.1499000
C32 C 1.0 0.2259000 0.2313000 0.2177000
C33 C 1.0 0.2837000 0.2818000 0.2261000
C34 C 1.0 0.1338000 0.1690000 0.1378000
C35 C 1.0 0.3115000 0.7252000 0.1673000
C36 C 1.0 0.3178000 0.7705000 0.1059000
C37 C 1.0 0.2599000 0.8358000 0.0976000
C38 C 1.0 0.1945000 0.8549000 0.1503000
C39 C 1.0 0.1864000 0.8088000 0.2113000
C40 C 1.0 0.2452000 0.7451000 0.2210000
C41 C 1.0 0.1344000 0.9258000 0.1400000
C42 C 1.0 0.7414000 0.6750000 0.1684000
C43 C 1.0 0.7552000 0.7183000 0.1060000
C44 C 1.0 0.8149000 0.7668000 0.1007000
C45 C 1.0 0.8633000 0.7747000 0.1580000
C46 C 1.0 0.8498000 0.7328000 0.2194000
C47 C 1.0 0.7884000 0.6824000 0.2257000
C48 C 1.0 0.9263000 0.8295000 0.1493000
C49 C 1.0 0.4530000 0.4647000 0.3467000
C50 C 1.0 0.4470000 0.4648000 0.4225000
C51 C 1.0 0.5034000 0.4994000 0.4589400
C52 C 1.0 0.5659000 0.5338000 0.4195000
C53 C 1.0 0.5720000 0.5337000 0.3437000
N1 N 1.0 0.5281000 0.3813000 0.1737000
N2 N 1.0 0.3995000 0.5139000 0.1799000
N3 N 1.0 0.5257000 0.6164000 0.1771000
N4 N 1.0 0.6543000 0.4844000 0.1747000
N5 N 1.0 0.5155000 0.4992000 0.3072500
O1 O 1.0 0.9547000 0.0485000 0.0671000
O2 O 1.0 0.9734000 0.0584000 0.1833000
O3 O 1.0 0.1171000 0.1519000 0.0778000
O4 O 1.0 0.0889000 0.1521000 0.2022000
O5 O 1.0 0.1474000 0.9706000 0.0900000
O6 O 1.0 0.0708000 0.9371000 0.1884000
O7 O 1.0 0.9409000 0.8661000 0.0957000
O8 O 1.0 0.9672000 0.8325000 0.2088000
